LAMMPS (3 Mar 2020)
# 3d Lennard-Jones melt
# original lammps/examples/melt/in.melt

units		lj
atom_style	atomic

lattice		fcc 0.8442
Lattice spacing in x,y,z = 1.6796 1.6796 1.6796
region		box block 0 10 0 10 0 10
create_box	1 box
Created orthogonal box = (0 0 0) to (16.796 16.796 16.796)
create_atoms	1 box
Created 4000 atoms
mass		1 1.0

velocity	all create 3.0 87287

pair_style	lj/cut 2.5
pair_coeff	1 1 1.0 1.0 2.5

neighbor	0.3 bin
neigh_modify	every 20 delay 0 check no

fix		1 all nve

#dump		id all atom 50 dump.melt

# thermo output
variable e2body    equal ebond+evdwl
variable ecoul_tot equal ecoul+elong
variable str_dbg string 'ebond eangle edihed eimp evdwl ecoul elong etail v_e2body v_ecoul_tot'
thermo_style custom step temp pe etotal press vol ebond eangle edihed eimp evdwl ecoul elong etail v_e2body v_ecoul_tot
thermo		1000

# compute the per atom properties
compute peatom all pe/atom
dump 1 all custom/gz 1000 dump.lammpstrj.gz id type x y z fx fy fz c_peatom
dump_modify 1 format float "% 20.15f"

run		10000
  update every 20 steps, delay 0 steps, check no
Step Temp PotEng TotEng Press Volume E_bond E_angle E_dihed E_impro E_vdwl E_coul E_long E_tail v_e2body v_ecoul_tot
0            3   -6.7733681   -2.2744931   -3.7033504    4738.2137            0            0            0            0   -6.7733681            0            0            0   -6.7733681            0
Averages over the last 6 of 11 rows, steps 5000 to 10000:
Temp PotEng TotEng Press Volume E_bond E_angle E_dihed E_impro E_vdwl E_coul E_long E_tail v_e2body v_ecoul_tot
1.62467 -4.76399 -2.3276 5.76714 4738.21 0 0 0 0 -4.76399 0 0 0 -4.76399 0
Loop time of 24.0282 on 1 procs for 10000 steps with 4000 atoms
